Molecule
  DSViewer          3D                             0

  5  4  0  0  0  0  0  0  0  0999 V2000
   14.7739  -13.4254   -0.0006 C   0  0
   16.0899  -12.7024   -0.0010 C   0  0
   17.2284  -13.3924   -0.0000 C   0  0
   17.2053  -14.4822    0.0010 H   0  0
   18.1837  -12.8676   -0.0003 H   0  0
  1  2  1  0  0  0
  2  3  2  0  0  0
  3  4  1  0  0  0
  3  5  1  0  0  0
M  END
> <Clean Energy>
4.03305e-028

$$$$
Molecule
  DSViewer          3D                             0

  7  6  0  0  0  0  0  0  0  0999 V2000
   28.7159  -13.3090   -0.0006 C   0  0
   30.0351  -12.5926   -0.0009 C   0  0
   31.1700  -13.2883   -0.0000 C   0  0
   32.4892  -12.5718   -0.0004 C   0  0
   33.2993  -13.3010    0.0005 H   0  0
   32.5635  -11.9459    0.8890 H   0  0
   32.5639  -11.9476   -0.8908 H   0  0
  1  2  1  0  0  0
  2  3  2  0  0  0
  3  4  1  0  0  0
  4  5  1  0  0  0
  4  6  1  0  0  0
  4  7  1  0  0  0
M  END
> <Clean Energy>
-0.0665826

$$$$
Molecule
  DSViewer          3D                             0

  4  3  0  0  0  0  0  0  0  0999 V2000
   17.0983  -21.7416   -0.0006 C   0  0
   18.2363  -22.4323   -0.0009 C   0  0
   19.5185  -21.7285   -0.0000 C   0  0
   20.6565  -22.4193   -0.0004 C   0  0
  1  2  2  0  0  0
  2  3  1  0  0  0
  3  4  2  0  0  0
M  END
> <Clean Energy>
-0.0601382

$$$$
Molecule
  DSViewer          3D                             0

  7  7  0  0  0  0  0  0  0  0999 V2000
   11.2400  -34.1494    0.0002 C   0  0
   11.2221  -35.5528    0.0000 N   0  0
   12.4405  -36.3397    0.0000 C   0  0
   13.6955  -35.4993    0.0002 C   0  0
   13.6525  -34.1697    0.0003 C   0  0
   12.3813  -33.4688    0.0003 C   0  0
    9.9580  -36.2307   -0.0001 C   0  0
  1  2  1  0  0  0
  2  3  1  0  0  0
  3  4  1  0  0  0
  4  5  2  0  0  0
  5  6  1  0  0  0
  6  1  2  0  0  0
  2  7  1  0  0  0
M  END
> <Clean Energy>
0.22542

$$$$
Molecule
  DSViewer          3D                             0

  4  3  0  0  0  0  0  0  0  0999 V2000
   33.0302  -36.7798   -0.0006 C   0  0
   34.1649  -36.0837   -0.0009 C   0  0
   35.4507  -36.7813   -0.0000 C   0  0
   36.5339  -36.1169   -0.0004 N   0  0
  1  2  2  0  0  0
  2  3  1  0  0  0
  3  4  2  0  0  0
M  END
> <Clean Energy>
-0.0323752

$$$$
Molecule
  DSViewer          3D                             0

  5  4  0  0  0  0  0  0  0  0999 V2000
   31.4254  -46.4166   -0.0008 N   0  0
   32.6127  -45.6814   -0.0007 C   0  0
   33.5730  -46.1971   -0.0011 H   0  0
   32.5746  -44.4458   -0.0002 O   0  0
   30.1612  -45.7377   -0.0002 C   0  0
  1  2  1  0  0  0
  2  3  1  0  0  0
  2  4  2  0  0  0
  1  5  1  0  0  0
M  END
> <Clean Energy>
-0.0999933

$$$$
Molecule
  DSViewer          3D                             0

  6  6  0  0  0  0  0  0  0  0999 V2000
   11.3376  -56.6098    0.1762 C   0  0
   11.4066  -58.0881   -0.2765 C   0  0
   12.7717  -58.5313    0.2754 C   0  0
   13.6957  -57.3749   -0.1763 C   0  0
   12.7683  -56.2167    0.0003 C   0  0
   13.1792  -54.9506    0.0008 C   0  0
  1  2  1  0  0  0
  2  3  1  0  0  0
  3  4  1  0  0  0
  4  5  1  0  0  0
  5  1  1  0  0  0
  5  6  2  0  0  0
M  END
> <Clean Energy>
12.1643

$$$$
Molecule
  DSViewer          3D                             0

  6  6  0  0  0  0  0  0  0  0999 V2000
   22.0906  -57.3436    0.2305 C   0  0
   22.1558  -58.7761   -0.2946 C   0  0
   23.5387  -59.2103    0.2041 C   0  0
   24.3912  -58.0681   -0.0870 O   0  0
   23.5174  -56.9777    0.0284 C   0  0
   23.9253  -55.7155   -0.0815 C   0  0
  1  2  1  0  0  0
  2  3  1  0  0  0
  3  4  1  0  0  0
  4  5  1  0  0  0
  5  1  1  0  0  0
  5  6  2  0  0  0
M  END
> <Clean Energy>
12.528

$$$$
Molecule
  DSViewer          3D                             0

  9 10  0  0  0  0  0  0  0  0999 V2000
   35.8727  -56.2790   -0.0014 C   0  0
   35.9220  -57.7755   -0.0010 C   0  0
   37.1485  -58.1635    0.0000 N   0  0
   37.9428  -57.0224    0.0004 C   0  0
   37.1393  -55.9014   -0.0005 C   0  0
   39.2093  -56.9513    0.0013 N   0  0
   39.8153  -55.6594    0.0015 C   0  0
   39.0675  -54.5424    0.0006 C   0  0
   37.6609  -54.6339   -0.0004 N   0  0
  1  2  1  0  0  0
  2  3  2  0  0  0
  3  4  1  0  0  0
  4  5  1  0  0  0
  5  1  2  0  0  0
  4  6  2  0  0  0
  6  7  1  0  0  0
  7  8  2  0  0  0
  8  9  1  0  0  0
  9  5  1  0  0  0
M  END
> <Clean Energy>
20.0392

$$$$
Molecule
  DSViewer          3D                             0

  6  6  0  0  0  0  0  0  0  0999 V2000
   10.7293  -68.4588   -0.0502 C   0  0
   10.7731  -69.7852    0.1166 C   0  0
   11.9748  -70.5436    0.0904 O   0  0
   13.1408  -69.7943   -0.3215 C   0  0
   13.1618  -68.4361    0.3609 C   0  0
   11.9793  -67.6434   -0.1963 C   0  0
  1  2  2  0  0  0
  2  3  1  0  0  0
  3  4  1  0  0  0
  4  5  1  0  0  0
  5  6  1  0  0  0
  6  1  1  0  0  0
M  END
> <Clean Energy>
3.44308

$$$$
Molecule
  DSViewer          3D                             0

  6  5  0  0  0  0  0  0  0  0999 V2000
   41.0500  -69.0162    0.3063 C   0  0
   42.1377  -68.1940   -0.2759 O   0  0
   39.8356  -68.3150    0.0287 O   0  0
   40.8811  -70.3696   -0.2752 O   0  0
   41.8570  -71.3649    0.1085 C   0  0
   43.4876  -68.5417    0.1075 C   0  0
  1  2  1  0  0  0
  1  3  1  0  0  0
  1  4  1  0  0  0
  4  5  1  0  0  0
  2  6  1  0  0  0
M  END
> <Clean Energy>
8.35419

$$$$
Molecule
  DSViewer          3D                             0

  6  6  0  0  0  0  0  0  0  0999 V2000
   59.2993  -51.5870   -0.0003 C   0  0
   59.3104  -52.9147   -0.0007 C   0  0
   60.6451  -53.3893   -0.0004 N   0  0
   61.6168  -52.3006    0.0003 C   0  0
   60.6664  -51.1485    0.0003 C   0  0
   61.0410  -49.8712    0.0008 C   0  0
  1  2  2  0  0  0
  2  3  1  0  0  0
  3  4  1  0  0  0
  4  5  1  0  0  0
  5  1  1  0  0  0
  5  6  2  0  0  0
M  END
> <Clean Energy>
11.2361

$$$$
Molecule
  DSViewer          3D                             0

 17 20  0  0  0  0  0  0  0  0999 V2000
   81.1245  -52.1616    0.0001 C   0  0
   81.0614  -53.4880    0.0002 C   0  0
   82.3268  -54.2376    0.0002 C   0  0
   83.4913  -53.5795    0.0002 C   0  0
   83.4923  -52.1239    0.0001 C   0  0
   82.3250  -51.4892    0.0001 C   0  0
   84.6695  -54.2981    0.0002 O   0  0
   85.8367  -53.5158    0.0002 C   0  0
   85.8334  -52.1716    0.0001 C   0  0
   84.6632  -51.3967    0.0000 O   0  0
   87.1204  -54.2303    0.0002 C   0  0
   88.2719  -53.5645    0.0002 C   0  0
   88.2681  -52.1102    0.0001 C   0  0
   87.1132  -51.4504    0.0000 C   0  0
   82.1655  -50.1364   -0.0000 O   0  0
   80.6873  -49.9738   -0.0000 C   0  0
   80.0536  -51.3193    0.0001 O   0  0
  1  2  2  0  0  0
  2  3  1  0  0  0
  3  4  2  0  0  0
  4  5  1  0  0  0
  5  6  2  0  0  0
  6  1  1  0  0  0
  4  7  1  0  0  0
  7  8  1  0  0  0
  8  9  2  0  0  0
  9 10  1  0  0  0
 10  5  1  0  0  0
  8 11  1  0  0  0
 11 12  2  0  0  0
 12 13  1  0  0  0
 13 14  2  0  0  0
 14  9  1  0  0  0
  6 15  1  0  0  0
 15 16  1  0  0  0
 16 17  1  0  0  0
 17  1  1  0  0  0
M  END
> <Clean Energy>
14.8315

$$$$
Molecule
  DSViewer          3D                             0

  4  3  0  0  0  0  0  0  0  0999 V2000
   62.9755  -65.7057   -0.0006 N   0  0
   64.0550  -65.0352   -0.0009 C   0  0
   65.3448  -65.7256   -0.0000 C   0  0
   66.4243  -65.0552   -0.0004 N   0  0
  1  2  2  0  0  0
  2  3  1  0  0  0
  3  4  2  0  0  0
M  END
> <Clean Energy>
-0.0144675

$$$$
Molecule
  DSViewer          3D                             0

 10 11  0  0  0  0  0  0  0  0999 V2000
   84.0459  -67.1711    0.0002 C   0  0
   84.0623  -68.6077   -0.0002 N   0  0
   85.1649  -69.2580   -0.0004 C   0  0
   86.4013  -68.5013   -0.0001 C   0  0
   86.4191  -67.1440    0.0003 C   0  0
   85.3149  -66.4157    0.0005 C   0  0
   87.5959  -68.9323   -0.0002 N   0  0
   88.4515  -67.8268    0.0002 N   0  0
   87.7771  -66.7317    0.0005 C   0  0
   82.8852  -66.5198    0.0004 C   0  0
  1  2  1  0  0  0
  2  3  2  0  0  0
  3  4  1  0  0  0
  4  5  1  0  0  0
  5  6  2  0  0  0
  6  1  1  0  0  0
  4  7  2  0  0  0
  7  8  1  0  0  0
  8  9  2  0  0  0
  9  5  1  0  0  0
  1 10  2  0  0  0
M  END
> <Clean Energy>
21.3106

$$$$
Molecule
  DSViewer          3D                             0

  5  4  0  0  0  0  0  0  0  0999 V2000
   62.2337  -74.3438   -0.0008 C   0  0
   63.4426  -73.7867   -0.0010 C   0  0
   64.5777  -74.5900    0.0004 O   0  0
   65.7130  -73.7871   -0.0001 C   0  0
   66.9218  -74.3445    0.0010 C   0  0
  1  2  2  0  0  0
  2  3  1  0  0  0
  3  4  1  0  0  0
  4  5  2  0  0  0
M  END
> <Clean Energy>
-0.204674

$$$$
Molecule
  DSViewer          3D                             0

 14 13  0  0  0  0  0  0  0  0999 V2000
   60.9780  -82.9684   -0.0007 C   0  0
   62.2990  -82.1780   -0.0011 C   0  0
   60.1383  -82.2736   -0.0016 H   0  0
   60.9293  -83.5951    0.8899 H   0  0
   60.9298  -83.5970   -0.8899 H   0  0
   63.4841  -83.1601    0.0003 C   0  0
   64.8049  -82.3699   -0.0002 C   0  0
   62.3473  -81.5516   -0.8919 H   0  0
   62.3468  -81.5498    0.8884 H   0  0
   63.4358  -83.7864    0.8911 H   0  0
   63.4363  -83.7883   -0.8892 H   0  0
   64.8533  -81.7436   -0.8909 H   0  0
   64.8527  -81.7418    0.8893 H   0  0
   65.9901  -83.3523    0.0012 C   0  0
  1  2  1  0  0  0
  1  3  1  0  0  0
  1  4  1  0  0  0
  1  5  1  0  0  0
  2  6  1  0  0  0
  6  7  1  0  0  0
  2  8  1  0  0  0
  2  9  1  0  0  0
  6 10  1  0  0  0
  6 11  1  0  0  0
  7 12  1  0  0  0
  7 13  1  0  0  0
  7 14  1  0  0  0
M  END
> <Clean Energy>
-0.201001

$$$$
Molecule
  DSViewer          3D                             0

  6  6  0  0  0  0  0  0  0  0999 V2000
   86.0688  -82.6715    0.1150 N   0  0
   84.8336  -83.2786    0.0389 N   0  0
   83.6471  -82.5490   -0.1085 C   0  0
   83.6517  -81.2833   -0.0090 N   0  0
   84.7900  -80.6292    0.1783 N   0  0
   86.0278  -81.2298   -0.2147 C   0  0
  1  2  1  0  0  0
  2  3  1  0  0  0
  3  4  2  0  0  0
  4  5  1  0  0  0
  5  6  1  0  0  0
  1  6  1  0  0  0
M  END
> <Clean Energy>
5.00293

$$$$
